<?xml version="1.0" encoding="UTF-8"?>

<!-- generated on 05/15/20 17:41:28 by Eclipse SUMO GUI Version 1.5.0
-->

<configuration xmlns:xsi="http://www.w3.org/2001/XMLSchema-instance" xsi:noNamespaceSchemaLocation="http://sumo.dlr.de/xsd/sumoConfiguration.xsd">

    <input>
        <net-file value="C:\Users\Ahmed\Sumo\RL\KH.net.xml"/>
        <route-files value="C:\Users\Ahmed\Sumo\RL\KH.rou.xml"/>
    </input>

</configuration>
