<?xml version="1.0" encoding="UTF-8"?>

<!-- generated on 01/23/21 09:02:43 by Eclipse SUMO netedit Version 1.5.0
<configuration xmlns:xsi="http://www.w3.org/2001/XMLSchema-instance" xsi:noNamespaceSchemaLocation="http://sumo.dlr.de/xsd/netconvertConfiguration.xsd">

    <input>
        <sumo-net-file value="C:\Users\Ahmed\Sumo\RL\KH_orig.net.xml"/>
    </input>

    <output>
        <output-file value="C:\Users\Ahmed\Sumo\RL\KH_orig.net.xml"/>
    </output>

    <processing>
        <geometry.min-radius.fix.railways value="false"/>
        <geometry.max-grade.fix value="false"/>
        <offset.disable-normalization value="true"/>
        <lefthand value="false"/>
    </processing>

    <junctions>
        <no-turnarounds value="true"/>
        <junctions.corner-detail value="5"/>
        <junctions.limit-turn-speed value="5.5"/>
        <rectangular-lane-cut value="false"/>
    </junctions>

    <pedestrian>
        <walkingareas value="false"/>
    </pedestrian>

    <report>
        <aggregate-warnings value="5"/>
    </report>

</configuration>
-->

<net version="1.3" junctionCornerDetail="5" limitTurnSpeed="5.50" xmlns:xsi="http://www.w3.org/2001/XMLSchema-instance" xsi:noNamespaceSchemaLocation="http://sumo.dlr.de/xsd/net_file.xsd">

    <location netOffset="-452688.15,-1717658.95" convBoundary="856.43,6130.25,1107.05,6321.31" origBoundary="32.558687,15.536036,32.586619,15.595574" projParameter="+proj=utm +zone=36 +ellps=WGS84 +datum=WGS84 +units=m +no_defs"/>

    <type id="highway.bridleway" priority="1" numLanes="1" speed="2.78" allow="pedestrian" oneway="1" width="2.00"/>
    <type id="highway.bus_guideway" priority="1" numLanes="1" speed="13.89" allow="bus" oneway="1"/>
    <type id="highway.cycleway" priority="1" numLanes="1" speed="8.33" allow="bicycle" oneway="0" width="1.00"/>
    <type id="highway.footway" priority="1" numLanes="1" speed="2.78" allow="pedestrian" oneway="1" width="2.00"/>
    <type id="highway.ford" priority="1" numLanes="1" speed="2.78" allow="army" oneway="0"/>
    <type id="highway.living_street" priority="2" numLanes="1" speed="2.78" disallow="tram rail_urban rail rail_electric rail_fast ship" oneway="0"/>
    <type id="highway.motorway" priority="14" numLanes="2" speed="27.78" allow="private emergency authority army vip passenger hov taxi bus coach delivery truck trailer motorcycle evehicle custom1 custom2" oneway="1"/>
    <type id="highway.motorway_link" priority="9" numLanes="1" speed="16.67" allow="private emergency authority army vip passenger hov taxi bus coach delivery truck trailer motorcycle evehicle custom1 custom2" oneway="1"/>
    <type id="highway.path" priority="1" numLanes="1" speed="2.78" allow="pedestrian bicycle" oneway="1" width="2.00"/>
    <type id="highway.pedestrian" priority="1" numLanes="1" speed="2.78" allow="pedestrian" oneway="1" width="2.00"/>
    <type id="highway.primary" priority="12" numLanes="2" speed="13.89" disallow="tram rail_urban rail rail_electric rail_fast ship" oneway="0"/>
    <type id="highway.primary_link" priority="7" numLanes="1" speed="13.89" disallow="tram rail_urban rail rail_electric rail_fast ship" oneway="0"/>
    <type id="highway.raceway" priority="15" numLanes="2" speed="83.33" allow="vip" oneway="0"/>
    <type id="highway.residential" priority="3" numLanes="1" speed="13.89" disallow="tram rail_urban rail rail_electric rail_fast ship" oneway="0"/>
    <type id="highway.secondary" priority="11" numLanes="1" speed="13.89" disallow="tram rail_urban rail rail_electric rail_fast ship" oneway="0"/>
    <type id="highway.secondary_link" priority="6" numLanes="1" speed="13.89" disallow="tram rail_urban rail rail_electric rail_fast ship" oneway="0"/>
    <type id="highway.service" priority="1" numLanes="1" speed="5.56" allow="pedestrian delivery bicycle" oneway="0"/>
    <type id="highway.stairs" priority="1" numLanes="1" speed="1.39" allow="pedestrian" oneway="1" width="2.00"/>
    <type id="highway.step" priority="1" numLanes="1" speed="1.39" allow="pedestrian" oneway="1" width="2.00"/>
    <type id="highway.steps" priority="1" numLanes="1" speed="1.39" allow="pedestrian" oneway="1" width="2.00"/>
    <type id="highway.tertiary" priority="10" numLanes="1" speed="13.89" disallow="tram rail_urban rail rail_electric rail_fast ship" oneway="0"/>
    <type id="highway.tertiary_link" priority="5" numLanes="1" speed="13.89" disallow="tram rail_urban rail rail_electric rail_fast ship" oneway="0"/>
    <type id="highway.track" priority="1" numLanes="1" speed="5.56" disallow="tram rail_urban rail rail_electric rail_fast ship" oneway="0"/>
    <type id="highway.trunk" priority="13" numLanes="2" speed="13.89" disallow="pedestrian bicycle tram rail_urban rail rail_electric rail_fast ship" oneway="0"/>
    <type id="highway.trunk_link" priority="8" numLanes="1" speed="13.89" disallow="pedestrian bicycle tram rail_urban rail rail_electric rail_fast ship" oneway="0"/>
    <type id="highway.unclassified" priority="4" numLanes="1" speed="13.89" disallow="tram rail_urban rail rail_electric rail_fast ship" oneway="0"/>
    <type id="highway.unsurfaced" priority="1" numLanes="1" speed="8.33" disallow="tram rail_urban rail rail_electric rail_fast ship" oneway="0"/>
    <type id="railway.highspeed" priority="21" numLanes="1" speed="69.44" allow="rail_fast" oneway="1"/>
    <type id="railway.light_rail" priority="19" numLanes="1" speed="27.78" allow="rail_urban" oneway="1"/>
    <type id="railway.preserved" priority="16" numLanes="1" speed="27.78" allow="rail" oneway="1"/>
    <type id="railway.rail" priority="20" numLanes="1" speed="44.44" allow="rail" oneway="1"/>
    <type id="railway.subway" priority="18" numLanes="1" speed="27.78" allow="rail_urban" oneway="1"/>
    <type id="railway.tram" priority="17" numLanes="1" speed="13.89" allow="tram" oneway="1"/>

    <edge id=":339961940_0" function="internal">
        <lane id=":339961940_0_0" index="0" disallow="tram rail_urban rail rail_electric rail_fast ship" speed="6.07" length="7.93" shape="859.45,6285.87 857.36,6285.22 856.01,6284.07 855.38,6282.40 855.48,6280.22"/>
    </edge>
    <edge id=":339961940_1" function="internal">
        <lane id=":339961940_1_0" index="0" disallow="tram rail_urban rail rail_electric rail_fast ship" speed="3.65" length="4.67" shape="859.45,6285.87 858.39,6284.89 858.12,6284.04 858.64,6283.31 859.95,6282.71"/>
    </edge>
    <edge id=":339961940_2" function="internal">
        <lane id=":339961940_2_0" index="0" disallow="tram rail_urban rail rail_electric rail_fast ship" speed="3.90" length="2.64" shape="858.63,6280.82 858.59,6281.55 858.80,6282.11 859.25,6282.49 859.95,6282.71"/>
    </edge>
    <edge id=":339961940_3" function="internal">
        <lane id=":339961940_3_0" index="0" disallow="tram rail_urban rail rail_electric rail_fast ship" speed="3.65" length="4.67" shape="858.63,6280.82 857.61,6281.85 856.75,6282.09 856.04,6281.55 855.48,6280.22"/>
    </edge>
    <edge id=":339961944_0" function="internal">
        <lane id=":339961944_0_0" index="0" disallow="tram rail_urban rail rail_electric rail_fast ship" speed="6.67" length="9.24" shape="987.33,6174.47 984.76,6174.41 982.76,6175.14 981.35,6176.66 980.51,6178.98"/>
    </edge>
    <edge id=":339961944_1" function="internal">
        <lane id=":339961944_1_0" index="0" disallow="tram rail_urban rail rail_electric rail_fast ship" speed="7.93" length="14.34" shape="987.33,6174.47 983.56,6173.30 981.11,6171.20 980.00,6168.18 980.22,6164.24"/>
    </edge>
    <edge id=":339961944_2" function="internal">
        <lane id=":339961944_2_0" index="0" disallow="tram rail_urban rail rail_electric rail_fast ship" speed="3.65" length="4.67" shape="987.33,6174.47 986.27,6173.49 986.00,6172.64 986.52,6171.91 987.83,6171.31"/>
    </edge>
    <edge id=":339961944_3" function="internal">
        <lane id=":339961944_3_0" index="0" disallow="tram rail_urban rail rail_electric rail_fast ship" speed="6.43" length="9.03" shape="983.35,6164.86 983.22,6167.35 983.92,6169.25 985.46,6170.57 987.83,6171.31"/>
    </edge>
    <edge id=":339961944_4" function="internal">
        <lane id=":339961944_4_0" index="0" disallow="tram rail_urban rail rail_electric rail_fast ship" speed="13.89" length="14.40" shape="983.35,6164.86 980.51,6178.98"/>
    </edge>
    <edge id=":339961944_5" function="internal">
        <lane id=":339961944_5_0" index="0" disallow="tram rail_urban rail rail_electric rail_fast ship" speed="3.65" length="2.34" shape="983.35,6164.86 982.33,6165.88 981.47,6166.12"/>
    </edge>
    <edge id=":339961944_9" function="internal">
        <lane id=":339961944_9_0" index="0" disallow="tram rail_urban rail rail_electric rail_fast ship" speed="3.65" length="2.34" shape="981.47,6166.12 980.76,6165.57 980.22,6164.24"/>
    </edge>
    <edge id=":339961944_6" function="internal">
        <lane id=":339961944_6_0" index="0" disallow="tram rail_urban rail rail_electric rail_fast ship" speed="13.89" length="14.39" shape="977.37,6178.34 980.22,6164.24"/>
    </edge>
    <edge id=":339961944_7" function="internal">
        <lane id=":339961944_7_0" index="0" disallow="tram rail_urban rail rail_electric rail_fast ship" speed="8.14" length="5.84" shape="977.37,6178.34 978.67,6174.74 980.03,6173.26"/>
    </edge>
    <edge id=":339961944_8" function="internal">
        <lane id=":339961944_8_0" index="0" disallow="tram rail_urban rail rail_electric rail_fast ship" speed="3.65" length="2.34" shape="977.37,6178.34 978.39,6177.32 979.26,6177.09"/>
    </edge>
    <edge id=":339961944_10" function="internal">
        <lane id=":339961944_10_0" index="0" disallow="tram rail_urban rail rail_electric rail_fast ship" speed="8.14" length="8.41" shape="980.03,6173.26 980.85,6172.37 983.90,6171.22 987.83,6171.31"/>
    </edge>
    <edge id=":339961944_11" function="internal">
        <lane id=":339961944_11_0" index="0" disallow="tram rail_urban rail rail_electric rail_fast ship" speed="3.65" length="2.34" shape="979.26,6177.09 979.96,6177.64 980.51,6178.98"/>
    </edge>
    <edge id=":341997770_0" function="internal">
        <lane id=":341997770_0_0" index="0" disallow="tram rail_urban rail rail_electric rail_fast ship" speed="13.89" length="14.35" shape="961.27,6302.10 947.11,6299.77"/>
    </edge>
    <edge id=":341997770_1" function="internal">
        <lane id=":341997770_1_0" index="0" disallow="tram rail_urban rail rail_electric rail_fast ship" speed="7.94" length="5.88" shape="961.27,6302.10 957.52,6300.90 956.06,6299.63"/>
    </edge>
    <edge id=":341997770_2" function="internal">
        <lane id=":341997770_2_0" index="0" disallow="tram rail_urban rail rail_electric rail_fast ship" speed="3.65" length="2.34" shape="961.27,6302.10 960.22,6301.11 959.96,6300.26"/>
    </edge>
    <edge id=":341997770_9" function="internal">
        <lane id=":341997770_9_0" index="0" disallow="tram rail_urban rail rail_electric rail_fast ship" speed="7.94" length="8.44" shape="956.06,6299.63 955.10,6298.78 954.00,6295.76 954.23,6291.82"/>
    </edge>
    <edge id=":341997770_10" function="internal">
        <lane id=":341997770_10_0" index="0" disallow="tram rail_urban rail rail_electric rail_fast ship" speed="3.65" length="2.34" shape="959.96,6300.26 960.49,6299.54 961.81,6298.95"/>
    </edge>
    <edge id=":341997770_3" function="internal">
        <lane id=":341997770_3_0" index="0" disallow="tram rail_urban rail rail_electric rail_fast ship" speed="6.44" length="9.03" shape="957.37,6292.46 957.22,6294.94 957.91,6296.85 959.44,6298.19 961.81,6298.95"/>
    </edge>
    <edge id=":341997770_4" function="internal">
        <lane id=":341997770_4_0" index="0" disallow="tram rail_urban rail rail_electric rail_fast ship" speed="8.14" length="14.23" shape="957.37,6292.46 956.06,6296.17 953.92,6298.62 950.94,6299.82 947.11,6299.77"/>
    </edge>
    <edge id=":341997770_5" function="internal">
        <lane id=":341997770_5_0" index="0" disallow="tram rail_urban rail rail_electric rail_fast ship" speed="3.65" length="4.67" shape="957.37,6292.46 956.34,6293.48 955.48,6293.71 954.78,6293.16 954.23,6291.82"/>
    </edge>
    <edge id=":341997770_6" function="internal">
        <lane id=":341997770_6_0" index="0" disallow="tram rail_urban rail rail_electric rail_fast ship" speed="6.67" length="9.23" shape="947.62,6296.61 950.08,6296.64 952.00,6295.85 953.39,6294.24 954.23,6291.82"/>
    </edge>
    <edge id=":341997770_7" function="internal">
        <lane id=":341997770_7_0" index="0" disallow="tram rail_urban rail rail_electric rail_fast ship" speed="13.89" length="14.39" shape="947.62,6296.61 961.81,6298.95"/>
    </edge>
    <edge id=":341997770_8" function="internal">
        <lane id=":341997770_8_0" index="0" disallow="tram rail_urban rail rail_electric rail_fast ship" speed="3.65" length="2.34" shape="947.62,6296.61 948.67,6297.59 948.94,6298.44"/>
    </edge>
    <edge id=":341997770_11" function="internal">
        <lane id=":341997770_11_0" index="0" disallow="tram rail_urban rail rail_electric rail_fast ship" speed="3.65" length="2.34" shape="948.94,6298.44 948.42,6299.17 947.11,6299.77"/>
    </edge>
    <edge id=":341997834_0" function="internal">
        <lane id=":341997834_0_0" index="0" disallow="tram rail_urban rail rail_electric rail_fast ship" speed="6.47" length="9.05" shape="1019.07,6179.63 1016.61,6179.57 1014.73,6180.34 1013.43,6181.92 1012.72,6184.33"/>
    </edge>
    <edge id=":341997834_1" function="internal">
        <lane id=":341997834_1_0" index="0" disallow="tram rail_urban rail rail_electric rail_fast ship" speed="13.89" length="14.42" shape="1019.07,6179.63 1004.84,6177.29"/>
    </edge>
    <edge id=":341997834_2" function="internal">
        <lane id=":341997834_2_0" index="0" disallow="tram rail_urban rail rail_electric rail_fast ship" speed="3.65" length="2.34" shape="1019.07,6179.63 1018.02,6178.64 1017.76,6177.78"/>
    </edge>
    <edge id=":341997834_9" function="internal">
        <lane id=":341997834_9_0" index="0" disallow="tram rail_urban rail rail_electric rail_fast ship" speed="3.65" length="2.34" shape="1017.76,6177.78 1018.28,6177.06 1019.60,6176.47"/>
    </edge>
    <edge id=":341997834_3" function="internal">
        <lane id=":341997834_3_0" index="0" disallow="tram rail_urban rail rail_electric rail_fast ship" speed="13.89" length="14.45" shape="1005.34,6174.13 1019.60,6176.47"/>
    </edge>
    <edge id=":341997834_4" function="internal">
        <lane id=":341997834_4_0" index="0" disallow="tram rail_urban rail rail_electric rail_fast ship" speed="8.07" length="5.96" shape="1005.34,6174.13 1009.06,6175.29 1010.64,6176.62"/>
    </edge>
    <edge id=":341997834_5" function="internal">
        <lane id=":341997834_5_0" index="0" disallow="tram rail_urban rail rail_electric rail_fast ship" speed="3.65" length="2.34" shape="1005.34,6174.13 1006.40,6175.11 1006.67,6175.96"/>
    </edge>
    <edge id=":341997834_10" function="internal">
        <lane id=":341997834_10_0" index="0" disallow="tram rail_urban rail rail_electric rail_fast ship" speed="8.07" length="8.36" shape="1010.64,6176.62 1011.53,6177.38 1012.75,6180.39 1012.72,6184.33"/>
    </edge>
    <edge id=":341997834_11" function="internal">
        <lane id=":341997834_11_0" index="0" disallow="tram rail_urban rail rail_electric rail_fast ship" speed="3.65" length="2.34" shape="1006.67,6175.96 1006.15,6176.69 1004.84,6177.29"/>
    </edge>
    <edge id=":341997834_6" function="internal">
        <lane id=":341997834_6_0" index="0" disallow="tram rail_urban rail rail_electric rail_fast ship" speed="6.62" length="9.31" shape="1009.53,6183.99 1009.56,6181.39 1008.79,6179.41 1007.22,6178.04 1004.84,6177.29"/>
    </edge>
    <edge id=":341997834_7" function="internal">
        <lane id=":341997834_7_0" index="0" disallow="tram rail_urban rail rail_electric rail_fast ship" speed="8.00" length="14.38" shape="1009.53,6183.99 1010.67,6180.15 1012.72,6177.61 1015.70,6176.39 1019.60,6176.47"/>
    </edge>
    <edge id=":341997834_8" function="internal">
        <lane id=":341997834_8_0" index="0" disallow="tram rail_urban rail rail_electric rail_fast ship" speed="3.65" length="4.68" shape="1009.53,6183.99 1010.46,6182.88 1011.30,6182.57 1012.05,6183.05 1012.72,6184.33"/>
    </edge>
    <edge id=":3533071706_0" function="internal">
        <lane id=":3533071706_0_0" index="0" disallow="tram rail_urban rail rail_electric rail_fast ship" speed="13.89" length="0.54" shape="1097.70,6171.62 1097.60,6171.50 1097.51,6171.43 1097.42,6171.37 1097.28,6171.29"/>
    </edge>
    <edge id=":3533071706_1" function="internal">
        <lane id=":3533071706_1_0" index="0" disallow="tram rail_urban rail rail_electric rail_fast ship" speed="3.65" length="2.34" shape="1097.70,6171.62 1097.49,6170.19 1097.81,6169.36"/>
    </edge>
    <edge id=":3533071706_4" function="internal">
        <lane id=":3533071706_4_0" index="0" disallow="tram rail_urban rail rail_electric rail_fast ship" speed="3.65" length="2.34" shape="1097.81,6169.36 1098.67,6169.12 1100.07,6169.46"/>
    </edge>
    <edge id=":3533071706_2" function="internal">
        <lane id=":3533071706_2_0" index="0" disallow="tram rail_urban rail rail_electric rail_fast ship" speed="11.15" length="1.62" shape="1098.80,6168.47 1099.22,6168.71 1099.50,6168.89 1099.74,6169.11 1100.07,6169.46"/>
    </edge>
    <edge id=":3533071706_3" function="internal">
        <lane id=":3533071706_3_0" index="0" disallow="tram rail_urban rail rail_electric rail_fast ship" speed="3.65" length="2.34" shape="1098.80,6168.47 1099.48,6169.75 1099.45,6170.64"/>
    </edge>
    <edge id=":3533071706_5" function="internal">
        <lane id=":3533071706_5_0" index="0" disallow="tram rail_urban rail rail_electric rail_fast ship" speed="3.65" length="2.34" shape="1099.45,6170.64 1098.72,6171.16 1097.28,6171.29"/>
    </edge>
    <edge id=":3533071707_0" function="internal">
        <lane id=":3533071707_0_0" index="0" disallow="tram rail_urban rail rail_electric rail_fast ship" speed="6.08" length="7.78" shape="1087.66,6318.37 1087.03,6320.41 1085.90,6321.76 1084.27,6322.41 1082.14,6322.36"/>
    </edge>
    <edge id=":3533071707_1" function="internal">
        <lane id=":3533071707_1_0" index="0" disallow="tram rail_urban rail rail_electric rail_fast ship" speed="3.65" length="4.67" shape="1087.66,6318.37 1086.68,6319.43 1085.83,6319.71 1085.10,6319.19 1084.50,6317.88"/>
    </edge>
    <edge id=":3533071707_2" function="internal">
        <lane id=":3533071707_2_0" index="0" disallow="tram rail_urban rail rail_electric rail_fast ship" speed="3.90" length="2.59" shape="1082.66,6319.21 1083.37,6319.22 1083.91,6319.01 1084.29,6318.56 1084.50,6317.88"/>
    </edge>
    <edge id=":3533071707_3" function="internal">
        <lane id=":3533071707_3_0" index="0" disallow="tram rail_urban rail rail_electric rail_fast ship" speed="3.65" length="4.67" shape="1082.66,6319.21 1083.71,6320.19 1083.98,6321.05 1083.45,6321.77 1082.14,6322.36"/>
    </edge>
    <edge id=":5890961711_0" function="internal">
        <lane id=":5890961711_0_0" index="0" disallow="tram rail_urban rail rail_electric rail_fast ship" speed="6.48" length="9.03" shape="1013.85,6214.13 1011.37,6213.97 1009.45,6214.64 1008.08,6216.15 1007.26,6218.49"/>
    </edge>
    <edge id=":5890961711_1" function="internal">
        <lane id=":5890961711_1_0" index="0" disallow="tram rail_urban rail rail_electric rail_fast ship" speed="8.17" length="14.16" shape="1013.85,6214.13 1010.18,6212.82 1007.74,6210.67 1006.53,6207.70 1006.55,6203.90"/>
    </edge>
    <edge id=":5890961711_2" function="internal">
        <lane id=":5890961711_2_0" index="0" disallow="tram rail_urban rail rail_electric rail_fast ship" speed="3.65" length="4.67" shape="1013.85,6214.13 1012.84,6213.10 1012.61,6212.24 1013.17,6211.54 1014.51,6211.00"/>
    </edge>
    <edge id=":5890961711_3" function="internal">
        <lane id=":5890961711_3_0" index="0" disallow="tram rail_urban rail rail_electric rail_fast ship" speed="6.71" length="9.22" shape="1009.71,6204.37 1009.71,6206.83 1010.50,6208.75 1012.10,6210.14 1014.51,6211.00"/>
    </edge>
    <edge id=":5890961711_4" function="internal">
        <lane id=":5890961711_4_0" index="0" disallow="tram rail_urban rail rail_electric rail_fast ship" speed="13.89" length="14.33" shape="1009.71,6204.37 1007.26,6218.49"/>
    </edge>
    <edge id=":5890961711_5" function="internal">
        <lane id=":5890961711_5_0" index="0" disallow="tram rail_urban rail rail_electric rail_fast ship" speed="3.65" length="2.34" shape="1009.71,6204.37 1008.74,6205.44 1007.89,6205.72"/>
    </edge>
    <edge id=":5890961711_9" function="internal">
        <lane id=":5890961711_9_0" index="0" disallow="tram rail_urban rail rail_electric rail_fast ship" speed="3.65" length="2.34" shape="1007.89,6205.72 1007.16,6205.20 1006.55,6203.90"/>
    </edge>
    <edge id=":5890961711_6" function="internal">
        <lane id=":5890961711_6_0" index="0" disallow="tram rail_urban rail rail_electric rail_fast ship" speed="13.89" length="14.18" shape="1004.12,6217.87 1006.55,6203.90"/>
    </edge>
    <edge id=":5890961711_7" function="internal">
        <lane id=":5890961711_7_0" index="0" disallow="tram rail_urban rail rail_electric rail_fast ship" speed="7.98" length="5.70" shape="1004.12,6217.87 1005.41,6214.18 1006.61,6212.86"/>
    </edge>
    <edge id=":5890961711_8" function="internal">
        <lane id=":5890961711_8_0" index="0" disallow="tram rail_urban rail rail_electric rail_fast ship" speed="3.65" length="2.34" shape="1004.12,6217.87 1005.14,6216.85 1006.00,6216.61"/>
    </edge>
    <edge id=":5890961711_10" function="internal">
        <lane id=":5890961711_10_0" index="0" disallow="tram rail_urban rail rail_electric rail_fast ship" speed="7.98" length="8.55" shape="1006.61,6212.86 1007.57,6211.80 1010.61,6210.74 1014.51,6211.00"/>
    </edge>
    <edge id=":5890961711_11" function="internal">
        <lane id=":5890961711_11_0" index="0" disallow="tram rail_urban rail rail_electric rail_fast ship" speed="3.65" length="2.34" shape="1006.00,6216.61 1006.71,6217.16 1007.26,6218.49"/>
    </edge>
    <edge id=":5891264389_0" function="internal">
        <lane id=":5891264389_0_0" index="0" disallow="tram rail_urban rail rail_electric rail_fast ship" speed="13.89" length="14.40" shape="1060.52,6249.81 1057.68,6263.93"/>
    </edge>
    <edge id=":5891264389_1" function="internal">
        <lane id=":5891264389_1_0" index="0" disallow="tram rail_urban rail rail_electric rail_fast ship" speed="7.99" length="5.93" shape="1060.52,6249.81 1059.22,6253.49 1057.85,6254.99"/>
    </edge>
    <edge id=":5891264389_2" function="internal">
        <lane id=":5891264389_2_0" index="0" disallow="tram rail_urban rail rail_electric rail_fast ship" speed="3.65" length="2.34" shape="1060.52,6249.81 1059.50,6250.83 1058.64,6251.07"/>
    </edge>
    <edge id=":5891264389_9" function="internal">
        <lane id=":5891264389_9_0" index="0" disallow="tram rail_urban rail rail_electric rail_fast ship" speed="7.99" length="8.29" shape="1057.85,6254.99 1057.05,6255.86 1054.02,6256.92 1050.13,6256.67"/>
    </edge>
    <edge id=":5891264389_10" function="internal">
        <lane id=":5891264389_10_0" index="0" disallow="tram rail_urban rail rail_electric rail_fast ship" speed="3.65" length="2.34" shape="1058.64,6251.07 1057.93,6250.52 1057.38,6249.18"/>
    </edge>
    <edge id=":5891264389_3" function="internal">
        <lane id=":5891264389_3_0" index="0" disallow="tram rail_urban rail rail_electric rail_fast ship" speed="6.49" length="9.03" shape="1050.79,6253.54 1053.26,6253.70 1055.18,6253.02 1056.56,6251.52 1057.38,6249.18"/>
    </edge>
    <edge id=":5891264389_4" function="internal">
        <lane id=":5891264389_4_0" index="0" disallow="tram rail_urban rail rail_electric rail_fast ship" speed="8.03" length="14.20" shape="1050.79,6253.54 1054.45,6254.86 1056.82,6257.04 1057.90,6260.06 1057.68,6263.93"/>
    </edge>
    <edge id=":5891264389_5" function="internal">
        <lane id=":5891264389_5_0" index="0" disallow="tram rail_urban rail rail_electric rail_fast ship" speed="3.65" length="4.67" shape="1050.79,6253.54 1051.80,6254.57 1052.02,6255.43 1051.47,6256.13 1050.13,6256.67"/>
    </edge>
    <edge id=":5891264389_6" function="internal">
        <lane id=":5891264389_6_0" index="0" disallow="tram rail_urban rail rail_electric rail_fast ship" speed="6.54" length="9.07" shape="1054.55,6263.30 1054.68,6260.83 1053.99,6258.90 1052.48,6257.52 1050.13,6256.67"/>
    </edge>
    <edge id=":5891264389_7" function="internal">
        <lane id=":5891264389_7_0" index="0" disallow="tram rail_urban rail rail_electric rail_fast ship" speed="13.89" length="14.40" shape="1054.55,6263.30 1057.38,6249.18"/>
    </edge>
    <edge id=":5891264389_8" function="internal">
        <lane id=":5891264389_8_0" index="0" disallow="tram rail_urban rail rail_electric rail_fast ship" speed="3.65" length="2.34" shape="1054.55,6263.30 1055.57,6262.28 1056.43,6262.05"/>
    </edge>
    <edge id=":5891264389_11" function="internal">
        <lane id=":5891264389_11_0" index="0" disallow="tram rail_urban rail rail_electric rail_fast ship" speed="3.65" length="2.34" shape="1056.43,6262.05 1057.13,6262.60 1057.68,6263.93"/>
    </edge>
    <edge id=":5891264390_0" function="internal">
        <lane id=":5891264390_0_0" index="0" disallow="tram rail_urban rail rail_electric rail_fast ship" speed="6.48" length="9.03" shape="1007.22,6247.71 1004.75,6247.56 1002.83,6248.23 1001.46,6249.74 1000.64,6252.08"/>
    </edge>
    <edge id=":5891264390_1" function="internal">
        <lane id=":5891264390_1_0" index="0" disallow="tram rail_urban rail rail_electric rail_fast ship" speed="8.04" length="14.21" shape="1007.22,6247.71 1003.55,6246.39 1001.17,6244.22 1000.08,6241.20 1000.29,6237.33"/>
    </edge>
    <edge id=":5891264390_2" function="internal">
        <lane id=":5891264390_2_0" index="0" disallow="tram rail_urban rail rail_electric rail_fast ship" speed="3.65" length="4.67" shape="1007.22,6247.71 1006.21,6246.69 1005.99,6245.82 1006.54,6245.12 1007.88,6244.58"/>
    </edge>
    <edge id=":5891264390_3" function="internal">
        <lane id=":5891264390_3_0" index="0" disallow="tram rail_urban rail rail_electric rail_fast ship" speed="6.55" length="9.09" shape="1003.42,6237.95 1003.30,6240.42 1004.00,6242.35 1005.53,6243.73 1007.88,6244.58"/>
    </edge>
    <edge id=":5891264390_4" function="internal">
        <lane id=":5891264390_4_0" index="0" disallow="tram rail_urban rail rail_electric rail_fast ship" speed="13.89" length="14.40" shape="1003.42,6237.95 1000.64,6252.08"/>
    </edge>
    <edge id=":5891264390_5" function="internal">
        <lane id=":5891264390_5_0" index="0" disallow="tram rail_urban rail rail_electric rail_fast ship" speed="3.65" length="2.34" shape="1003.42,6237.95 1002.41,6238.97 1001.55,6239.21"/>
    </edge>
    <edge id=":5891264390_9" function="internal">
        <lane id=":5891264390_9_0" index="0" disallow="tram rail_urban rail rail_electric rail_fast ship" speed="3.65" length="2.34" shape="1001.55,6239.21 1000.84,6238.66 1000.29,6237.33"/>
    </edge>
    <edge id=":5891264390_6" function="internal">
        <lane id=":5891264390_6_0" index="0" disallow="tram rail_urban rail rail_electric rail_fast ship" speed="13.89" length="14.40" shape="997.50,6251.46 1000.29,6237.33"/>
    </edge>
    <edge id=":5891264390_7" function="internal">
        <lane id=":5891264390_7_0" index="0" disallow="tram rail_urban rail rail_electric rail_fast ship" speed="7.98" length="5.93" shape="997.50,6251.46 998.79,6247.77 1000.15,6246.28"/>
    </edge>
    <edge id=":5891264390_8" function="internal">
        <lane id=":5891264390_8_0" index="0" disallow="tram rail_urban rail rail_electric rail_fast ship" speed="3.65" length="2.34" shape="997.50,6251.46 998.51,6250.43 999.38,6250.20"/>
    </edge>
    <edge id=":5891264390_10" function="internal">
        <lane id=":5891264390_10_0" index="0" disallow="tram rail_urban rail rail_electric rail_fast ship" speed="7.98" length="8.31" shape="1000.15,6246.28 1000.95,6245.40 1003.98,6244.33 1007.88,6244.58"/>
    </edge>
    <edge id=":5891264390_11" function="internal">
        <lane id=":5891264390_11_0" index="0" disallow="tram rail_urban rail rail_electric rail_fast ship" speed="3.65" length="2.34" shape="999.38,6250.20 1000.08,6250.74 1000.64,6252.08"/>
    </edge>
    <edge id=":5891264392_0" function="internal">
        <lane id=":5891264392_0_0" index="0" disallow="tram rail_urban rail rail_electric rail_fast ship" speed="13.89" length="14.40" shape="1052.78,6317.52 1038.56,6315.17"/>
    </edge>
    <edge id=":5891264392_1" function="internal">
        <lane id=":5891264392_1_0" index="0" disallow="tram rail_urban rail rail_electric rail_fast ship" speed="7.94" length="5.94" shape="1052.78,6317.52 1049.01,6316.33 1047.51,6315.03"/>
    </edge>
    <edge id=":5891264392_2" function="internal">
        <lane id=":5891264392_2_0" index="0" disallow="tram rail_urban rail rail_electric rail_fast ship" speed="3.65" length="2.34" shape="1052.78,6317.52 1051.72,6316.53 1051.46,6315.68"/>
    </edge>
    <edge id=":5891264392_9" function="internal">
        <lane id=":5891264392_9_0" index="0" disallow="tram rail_urban rail rail_electric rail_fast ship" speed="7.94" length="8.39" shape="1047.51,6315.03 1046.58,6314.23 1045.47,6311.20 1045.69,6307.26"/>
    </edge>
    <edge id=":5891264392_10" function="internal">